<?xml version="1.0" encoding="UTF-8"?>

<!-- generated on 09/08/16 11:52:14 by SUMO netconvert Version 0.25.0
<?xml version="1.0" encoding="UTF-8"?>

<configuration xmlns:xsi="http://www.w3.org/2001/XMLSchema-instance" xsi:noNamespaceSchemaLocation="http://sumo.dlr.de/xsd/netconvertConfiguration.xsd">

    <input>
        <node-files value="park.nod.xml"/>
        <edge-files value="park.edg.xml"/>
        <connection-files value="park.con.xml"/>
    </input>

    <output>
        <output-file value="park.net.xml"/>
    </output>

    <processing>
        <no-internal-links value="true"/>
    </processing>

</configuration>
-->

<net version="0.25" xmlns:xsi="http://www.w3.org/2001/XMLSchema-instance" xsi:noNamespaceSchemaLocation="http://sumo.dlr.de/xsd/net_file.xsd">

    <location netOffset="100.00,0.00" convBoundary="0.00,0.00,497.00,65.00" origBoundary="-100.00,0.00,397.00,65.00" projParameter="!"/>

    <edge id="-cyber0to1" from="cyber1" to="cyber0" priority="-1" spreadType="center" shape="152.31,68.29 117.00,68.30">
        <lane id="-cyber0to1_0" index="0" speed="13.90" length="39.56" shape="152.16,69.94 117.00,69.95"/>
        <lane id="-cyber0to1_1" index="1" speed="13.90" length="39.56" shape="152.16,66.64 117.00,66.65"/>
    </edge>
    <edge id="-cyber1to2" from="cyber2" to="cyber1" priority="-1" spreadType="center" shape="187.31,68.29 152.00,68.30">
        <lane id="-cyber1to2_0" index="0" speed="13.90" length="37.22" shape="187.16,69.94 152.16,69.95"/>
        <lane id="-cyber1to2_1" index="1" speed="13.90" length="37.22" shape="187.16,66.64 152.16,66.65"/>
    </edge>
    <edge id="-cyber2to3" from="cyber3" to="cyber2" priority="-1" spreadType="center" shape="222.31,68.29 187.00,68.30">
        <lane id="-cyber2to3_0" index="0" speed="13.90" length="37.22" shape="222.16,69.94 187.16,69.95"/>
        <lane id="-cyber2to3_1" index="1" speed="13.90" length="37.22" shape="222.16,66.64 187.16,66.65"/>
    </edge>
    <edge id="-cyber3to4" from="cyber4" to="cyber3" priority="-1" spreadType="center" shape="257.31,68.29 222.00,68.30">
        <lane id="-cyber3to4_0" index="0" speed="13.90" length="37.22" shape="257.16,69.94 222.16,69.95"/>
        <lane id="-cyber3to4_1" index="1" speed="13.90" length="37.22" shape="257.16,66.64 222.16,66.65"/>
    </edge>
    <edge id="-cyber4to5" from="cyber5" to="cyber4" priority="-1" spreadType="center" shape="292.31,68.29 257.00,68.30">
        <lane id="-cyber4to5_0" index="0" speed="13.90" length="37.22" shape="292.16,69.94 257.16,69.95"/>
        <lane id="-cyber4to5_1" index="1" speed="13.90" length="37.22" shape="292.16,66.64 257.16,66.65"/>
    </edge>
    <edge id="-cyber5to6" from="cyber6" to="cyber5" priority="-1" spreadType="center" shape="327.31,68.29 292.00,68.30">
        <lane id="-cyber5to6_0" index="0" speed="13.90" length="37.22" shape="327.16,69.94 292.16,69.95"/>
        <lane id="-cyber5to6_1" index="1" speed="13.90" length="37.22" shape="327.16,66.64 292.16,66.65"/>
    </edge>
    <edge id="-cyber6to7" from="cyber7" to="cyber6" priority="-1" spreadType="center" shape="362.31,68.29 327.00,68.30">
        <lane id="-cyber6to7_0" index="0" speed="13.90" length="37.22" shape="362.16,69.94 327.16,69.95"/>
        <lane id="-cyber6to7_1" index="1" speed="13.90" length="37.22" shape="362.16,66.64 327.16,66.65"/>
    </edge>
    <edge id="-cyber7to8" from="cyber8" to="cyber7" priority="-1" spreadType="center" shape="397.31,68.29 362.00,68.30">
        <lane id="-cyber7to8_0" index="0" speed="13.90" length="37.22" shape="397.15,69.94 362.16,69.95"/>
        <lane id="-cyber7to8_1" index="1" speed="13.90" length="37.22" shape="397.15,66.64 362.16,66.65"/>
    </edge>
    <edge id="-cyberin" from="cyber0" to="cyber" priority="-1" spreadType="center" shape="117.09,68.30 0.00,68.30">
        <lane id="-cyberin_0" index="0" speed="13.90" length="123.69" shape="117.09,69.95 0.00,69.95"/>
        <lane id="-cyberin_1" index="1" speed="13.90" length="123.69" shape="117.09,66.65 -0.00,66.65"/>
    </edge>
    <edge id="-cyberout" from="cyberend" to="cyber8" priority="-1" spreadType="center" shape="497.11,68.30 397.00,68.30">
        <lane id="-cyberout_0" index="0" speed="13.90" length="104.26" shape="497.00,69.95 397.16,69.95"/>
        <lane id="-cyberout_1" index="1" speed="13.90" length="104.26" shape="497.00,66.65 397.16,66.65"/>
    </edge>
    <edge id="-foot0-0l" from="foot0-0lt" to="foot0-0" priority="-1" spreadType="center" shape="111.48,3.43 117.00,3.35">
        <lane id="-foot0-0l_0" index="0" speed="13.90" length="6.86" shape="111.98,3.43 112.37,3.42"/>
    </edge>
    <edge id="-foot0-0r" from="foot0-0rt" to="foot0-0" priority="-1" spreadType="center" shape="122.52,6.57 117.00,6.65">
        <lane id="-foot0-0r_0" index="0" speed="13.90" length="6.85" shape="122.02,6.57 121.73,6.58"/>
    </edge>
    <edge id="-foot0-1l" from="foot0-1lt" to="foot0-1" priority="-1" spreadType="center" shape="111.48,8.43 117.00,8.35">
        <lane id="-foot0-1l_0" index="0" speed="13.90" length="6.85" shape="111.98,8.43 112.25,8.42"/>
    </edge>
    <edge id="-foot0-1r" from="foot0-1rt" to="foot0-1" priority="-1" spreadType="center" shape="122.52,11.57 117.00,11.65">
        <lane id="-foot0-1r_0" index="0" speed="13.90" length="6.85" shape="122.02,11.57 121.73,11.58"/>
    </edge>
    <edge id="-foot0-1to0" from="foot0-0" to="foot0-1" priority="-1" spreadType="center" shape="118.65,5.00 118.57,10.52">
        <lane id="-foot0-1to0_0" index="0" speed="5.00" length="6.72" shape="118.65,5.23 118.64,5.43"/>
    </edge>
    <edge id="-foot0-2l" from="foot0-2lt" to="foot0-2" priority="-1" spreadType="center" shape="111.48,13.43 117.00,13.35">
        <lane id="-foot0-2l_0" index="0" speed="13.90" length="6.85" shape="111.98,13.43 112.25,13.42"/>
    </edge>
    <edge id="-foot0-2r" from="foot0-2rt" to="foot0-2" priority="-1" spreadType="center" shape="122.52,16.57 117.00,16.65">
        <lane id="-foot0-2r_0" index="0" speed="13.90" length="6.85" shape="122.02,16.57 121.73,16.58"/>
    </edge>
    <edge id="-foot0-2to1" from="foot0-1" to="foot0-2" priority="-1" spreadType="center" shape="118.65,10.00 118.57,15.52">
        <lane id="-foot0-2to1_0" index="0" speed="5.00" length="6.72" shape="118.65,10.23 118.64,10.43"/>
    </edge>
    <edge id="-foot0-3l" from="foot0-3lt" to="foot0-3" priority="-1" spreadType="center" shape="111.48,18.43 117.00,18.35">
        <lane id="-foot0-3l_0" index="0" speed="13.90" length="6.85" shape="111.98,18.43 112.25,18.42"/>
    </edge>
    <edge id="-foot0-3r" from="foot0-3rt" to="foot0-3" priority="-1" spreadType="center" shape="122.52,21.57 117.00,21.65">
        <lane id="-foot0-3r_0" index="0" speed="13.90" length="6.85" shape="122.02,21.57 121.73,21.58"/>
    </edge>
    <edge id="-foot0-3to2" from="foot0-2" to="foot0-3" priority="-1" spreadType="center" shape="118.65,15.00 118.57,20.52">
        <lane id="-foot0-3to2_0" index="0" speed="5.00" length="6.72" shape="118.65,15.23 118.64,15.43"/>
    </edge>
    <edge id="-foot0-4l" from="foot0-4lt" to="foot0-4" priority="-1" spreadType="center" shape="111.48,23.43 117.00,23.35">
        <lane id="-foot0-4l_0" index="0" speed="13.90" length="6.85" shape="111.98,23.43 112.25,23.42"/>
    </edge>
    <edge id="-foot0-4r" from="foot0-4rt" to="foot0-4" priority="-1" spreadType="center" shape="122.52,26.57 117.00,26.65">
        <lane id="-foot0-4r_0" index="0" speed="13.90" length="6.85" shape="122.02,26.57 121.73,26.58"/>
    </edge>
    <edge id="-foot0-4to3" from="foot0-3" to="foot0-4" priority="-1" spreadType="center" shape="118.65,20.00 118.57,25.52">
        <lane id="-foot0-4to3_0" index="0" speed="5.00" length="6.72" shape="118.65,20.23 118.64,20.43"/>
    </edge>
    <edge id="-foot0-5l" from="foot0-5lt" to="foot0-5" priority="-1" spreadType="center" shape="111.48,28.43 117.00,28.35">
        <lane id="-foot0-5l_0" index="0" speed="13.90" length="6.85" shape="111.98,28.43 112.25,28.42"/>
    </edge>
    <edge id="-foot0-5r" from="foot0-5rt" to="foot0-5" priority="-1" spreadType="center" shape="122.52,31.57 117.00,31.65">
        <lane id="-foot0-5r_0" index="0" speed="13.90" length="6.85" shape="122.02,31.57 121.73,31.58"/>
    </edge>
    <edge id="-foot0-5to4" from="foot0-4" to="foot0-5" priority="-1" spreadType="center" shape="118.65,25.00 118.57,30.52">
        <lane id="-foot0-5to4_0" index="0" speed="5.00" length="6.72" shape="118.65,25.23 118.64,25.43"/>
    </edge>
    <edge id="-foot0-6l" from="foot0-6lt" to="foot0-6" priority="-1" spreadType="center" shape="111.48,33.43 117.00,33.35">
        <lane id="-foot0-6l_0" index="0" speed="13.90" length="6.85" shape="111.98,33.43 112.25,33.42"/>
    </edge>
    <edge id="-foot0-6r" from="foot0-6rt" to="foot0-6" priority="-1" spreadType="center" shape="122.52,36.57 117.00,36.65">
        <lane id="-foot0-6r_0" index="0" speed="13.90" length="6.85" shape="122.02,36.57 121.73,36.58"/>
    </edge>
    <edge id="-foot0-6to5" from="foot0-5" to="foot0-6" priority="-1" spreadType="center" shape="118.65,30.00 118.57,35.52">
        <lane id="-foot0-6to5_0" index="0" speed="5.00" length="6.72" shape="118.65,30.23 118.64,30.43"/>
    </edge>
    <edge id="-foot0-7l" from="foot0-7lt" to="foot0-7" priority="-1" spreadType="center" shape="111.48,38.43 117.00,38.35">
        <lane id="-foot0-7l_0" index="0" speed="13.90" length="6.85" shape="111.98,38.43 112.25,38.42"/>
    </edge>
    <edge id="-foot0-7r" from="foot0-7rt" to="foot0-7" priority="-1" spreadType="center" shape="122.52,41.57 117.00,41.65">
        <lane id="-foot0-7r_0" index="0" speed="13.90" length="6.85" shape="122.02,41.57 121.73,41.58"/>
    </edge>
    <edge id="-foot0-7to6" from="foot0-6" to="foot0-7" priority="-1" spreadType="center" shape="118.65,35.00 118.57,40.52">
        <lane id="-foot0-7to6_0" index="0" speed="5.00" length="6.72" shape="118.65,35.23 118.64,35.43"/>
    </edge>
    <edge id="-foot0-8l" from="foot0-8lt" to="foot0-8" priority="-1" spreadType="center" shape="111.48,43.43 117.00,43.35">
        <lane id="-foot0-8l_0" index="0" speed="13.90" length="6.85" shape="111.98,43.43 112.25,43.42"/>
    </edge>
    <edge id="-foot0-8r" from="foot0-8rt" to="foot0-8" priority="-1" spreadType="center" shape="122.52,46.57 117.00,46.65">
        <lane id="-foot0-8r_0" index="0" speed="13.90" length="6.85" shape="122.02,46.57 121.73,46.58"/>
    </edge>
    <edge id="-foot0-8to7" from="foot0-7" to="foot0-8" priority="-1" spreadType="center" shape="118.65,40.00 118.57,45.52">
        <lane id="-foot0-8to7_0" index="0" speed="5.00" length="6.72" shape="118.65,40.23 118.64,40.43"/>
    </edge>
    <edge id="-foot0-9l" from="foot0-9lt" to="foot0-9" priority="-1" spreadType="center" shape="111.48,48.43 117.00,48.35">
        <lane id="-foot0-9l_0" index="0" speed="13.90" length="6.85" shape="111.98,48.43 112.25,48.42"/>
    </edge>
    <edge id="-foot0-9r" from="foot0-9rt" to="foot0-9" priority="-1" spreadType="center" shape="122.52,51.57 117.00,51.65">
        <lane id="-foot0-9r_0" index="0" speed="13.90" length="6.85" shape="122.02,51.57 121.75,51.58"/>
    </edge>
    <edge id="-foot0-9to8" from="foot0-8" to="foot0-9" priority="-1" spreadType="center" shape="118.65,45.00 118.57,50.52">
        <lane id="-foot0-9to8_0" index="0" speed="5.00" length="6.72" shape="118.65,45.23 118.64,45.43"/>
    </edge>
    <edge id="-foot0to9" from="foot0-9" to="foot0" priority="-1" spreadType="center" shape="118.57,49.48 118.65,55.00">
        <lane id="-foot0to9_0" index="0" speed="5.00" length="6.00" shape="118.60,51.88 118.61,52.08"/>
    </edge>
    <edge id="-foot1-0l" from="foot1-0lt" to="foot1-0" priority="-1" spreadType="center" shape="146.48,3.43 152.00,3.35">
        <lane id="-foot1-0l_0" index="0" speed="13.90" length="6.86" shape="146.98,3.43 147.37,3.42"/>
    </edge>
    <edge id="-foot1-0r" from="foot1-0rt" to="foot1-0" priority="-1" spreadType="center" shape="157.52,6.57 152.00,6.65">
        <lane id="-foot1-0r_0" index="0" speed="13.90" length="6.85" shape="157.02,6.57 156.73,6.58"/>
    </edge>
    <edge id="-foot1-1l" from="foot1-1lt" to="foot1-1" priority="-1" spreadType="center" shape="146.48,8.43 152.00,8.35">
        <lane id="-foot1-1l_0" index="0" speed="13.90" length="6.85" shape="146.98,8.43 147.25,8.42"/>
    </edge>
    <edge id="-foot1-1r" from="foot1-1rt" to="foot1-1" priority="-1" spreadType="center" shape="157.52,11.57 152.00,11.65">
        <lane id="-foot1-1r_0" index="0" speed="13.90" length="6.85" shape="157.02,11.57 156.73,11.58"/>
    </edge>
    <edge id="-foot1-1to0" from="foot1-0" to="foot1-1" priority="-1" spreadType="center" shape="153.65,5.00 153.57,10.52">
        <lane id="-foot1-1to0_0" index="0" speed="5.00" length="6.72" shape="153.65,5.23 153.64,5.43"/>
    </edge>
    <edge id="-foot1-2l" from="foot1-2lt" to="foot1-2" priority="-1" spreadType="center" shape="146.48,13.43 152.00,13.35">
        <lane id="-foot1-2l_0" index="0" speed="13.90" length="6.85" shape="146.98,13.43 147.25,13.42"/>
    </edge>
    <edge id="-foot1-2r" from="foot1-2rt" to="foot1-2" priority="-1" spreadType="center" shape="157.52,16.57 152.00,16.65">
        <lane id="-foot1-2r_0" index="0" speed="13.90" length="6.85" shape="157.02,16.57 156.73,16.58"/>
    </edge>
    <edge id="-foot1-2to1" from="foot1-1" to="foot1-2" priority="-1" spreadType="center" shape="153.65,10.00 153.57,15.52">
        <lane id="-foot1-2to1_0" index="0" speed="5.00" length="6.72" shape="153.65,10.23 153.64,10.43"/>
    </edge>
    <edge id="-foot1-3l" from="foot1-3lt" to="foot1-3" priority="-1" spreadType="center" shape="146.48,18.43 152.00,18.35">
        <lane id="-foot1-3l_0" index="0" speed="13.90" length="6.85" shape="146.98,18.43 147.25,18.42"/>
    </edge>
    <edge id="-foot1-3r" from="foot1-3rt" to="foot1-3" priority="-1" spreadType="center" shape="157.52,21.57 152.00,21.65">
        <lane id="-foot1-3r_0" index="0" speed="13.90" length="6.85" shape="157.02,21.57 156.73,21.58"/>
    </edge>
    <edge id="-foot1-3to2" from="foot1-2" to="foot1-3" priority="-1" spreadType="center" shape="153.65,15.00 153.57,20.52">
        <lane id="-foot1-3to2_0" index="0" speed="5.00" length="6.72" shape="153.65,15.23 153.64,15.43"/>
    </edge>
    <edge id="-foot1-4l" from="foot1-4lt" to="foot1-4" priority="-1" spreadType="center" shape="146.48,23.43 152.00,23.35">
        <lane id="-foot1-4l_0" index="0" speed="13.90" length="6.85" shape="146.98,23.43 147.25,23.42"/>
    </edge>
    <edge id="-foot1-4r" from="foot1-4rt" to="foot1-4" priority="-1" spreadType="center" shape="157.52,26.57 152.00,26.65">
        <lane id="-foot1-4r_0" index="0" speed="13.90" length="6.85" shape="157.02,26.57 156.73,26.58"/>
    </edge>
    <edge id="-foot1-4to3" from="foot1-3" to="foot1-4" priority="-1" spreadType="center" shape="153.65,20.00 153.57,25.52">
        <lane id="-foot1-4to3_0" index="0" speed="5.00" length="6.72" shape="153.65,20.23 153.64,20.43"/>
    </edge>
    <edge id="-foot1-5l" from="foot1-5lt" to="foot1-5" priority="-1" spreadType="center" shape="146.48,28.43 152.00,28.35">
        <lane id="-foot1-5l_0" index="0" speed="13.90" length="6.85" shape="146.98,28.43 147.25,28.42"/>
    </edge>
    <edge id="-foot1-5r" from="foot1-5rt" to="foot1-5" priority="-1" spreadType="center" shape="157.52,31.57 152.00,31.65">
        <lane id="-foot1-5r_0" index="0" speed="13.90" length="6.85" shape="157.02,31.57 156.73,31.58"/>
    </edge>
    <edge id="-foot1-5to4" from="foot1-4" to="foot1-5" priority="-1" spreadType="center" shape="153.65,25.00 153.57,30.52">
        <lane id="-foot1-5to4_0" index="0" speed="5.00" length="6.72" shape="153.65,25.23 153.64,25.43"/>
    </edge>
    <edge id="-foot1-6l" from="foot1-6lt" to="foot1-6" priority="-1" spreadType="center" shape="146.48,33.43 152.00,33.35">
        <lane id="-foot1-6l_0" index="0" speed="13.90" length="6.85" shape="146.98,33.43 147.25,33.42"/>
    </edge>
    <edge id="-foot1-6r" from="foot1-6rt" to="foot1-6" priority="-1" spreadType="center" shape="157.52,36.57 152.00,36.65">
        <lane id="-foot1-6r_0" index="0" speed="13.90" length="6.85" shape="157.02,36.57 156.73,36.58"/>
    </edge>
    <edge id="-foot1-6to5" from="foot1-5" to="foot1-6" priority="-1" spreadType="center" shape="153.65,30.00 153.57,35.52">
        <lane id="-foot1-6to5_0" index="0" speed="5.00" length="6.72" shape="153.65,30.23 153.64,30.43"/>
    </edge>
    <edge id="-foot1-7l" from="foot1-7lt" to="foot1-7" priority="-1" spreadType="center" shape="146.48,38.43 152.00,38.35">
        <lane id="-foot1-7l_0" index="0" speed="13.90" length="6.85" shape="146.98,38.43 147.25,38.42"/>
    </edge>
    <edge id="-foot1-7r" from="foot1-7rt" to="foot1-7" priority="-1" spreadType="center" shape="157.52,41.57 152.00,41.65">
        <lane id="-foot1-7r_0" index="0" speed="13.90" length="6.85" shape="157.02,41.57 156.73,41.58"/>
    </edge>
    <edge id="-foot1-7to6" from="foot1-6" to="foot1-7" priority="-1" spreadType="center" shape="153.65,35.00 153.57,40.52">
        <lane id="-foot1-7to6_0" index="0" speed="5.00" length="6.72" shape="153.65,35.23 153.64,35.43"/>
    </edge>
    <edge id="-foot1-8l" from="foot1-8lt" to="foot1-8" priority="-1" spreadType="center" shape="146.48,43.43 152.00,43.35">
        <lane id="-foot1-8l_0" index="0" speed="13.90" length="6.85" shape="146.98,43.43 147.25,43.42"/>
    </edge>
    <edge id="-foot1-8r" from="foot1-8rt" to="foot1-8" priority="-1" spreadType="center" shape="157.52,46.57 152.00,46.65">
        <lane id="-foot1-8r_0" index="0" speed="13.90" length="6.85" shape="157.02,46.57 156.73,46.58"/>
    </edge>
    <edge id="-foot1-8to7" from="foot1-7" to="foot1-8" priority="-1" spreadType="center" shape="153.65,40.00 153.57,45.52">
        <lane id="-foot1-8to7_0" index="0" speed="5.00" length="6.72" shape="153.65,40.23 153.64,40.43"/>
    </edge>
    <edge id="-foot1-9l" from="foot1-9lt" to="foot1-9" priority="-1" spreadType="center" shape="146.48,48.43 152.00,48.35">
        <lane id="-foot1-9l_0" index="0" speed="13.90" length="6.85" shape="146.98,48.43 147.25,48.42"/>
    </edge>
    <edge id="-foot1-9r" from="foot1-9rt" to="foot1-9" priority="-1" spreadType="center" shape="157.52,51.57 152.00,51.65">
        <lane id="-foot1-9r_0" index="0" speed="13.90" length="6.85" shape="157.02,51.57 156.75,51.58"/>
    </edge>
    <edge id="-foot1-9to8" from="foot1-8" to="foot1-9" priority="-1" spreadType="center" shape="153.65,45.00 153.57,50.52">
        <lane id="-foot1-9to8_0" index="0" speed="5.00" length="6.72" shape="153.65,45.23 153.64,45.43"/>
    </edge>
    <edge id="-foot1to9" from="foot1-9" to="foot1" priority="-1" spreadType="center" shape="153.57,49.48 153.65,55.00">
        <lane id="-foot1to9_0" index="0" speed="5.00" length="6.00" shape="153.60,51.88 153.61,52.08"/>
    </edge>
    <edge id="-foot2-0l" from="foot2-0lt" to="foot2-0" priority="-1" spreadType="center" shape="181.48,3.43 187.00,3.35">
        <lane id="-foot2-0l_0" index="0" speed="13.90" length="6.86" shape="181.98,3.43 182.37,3.42"/>
    </edge>
    <edge id="-foot2-0r" from="foot2-0rt" to="foot2-0" priority="-1" spreadType="center" shape="192.52,6.57 187.00,6.65">
        <lane id="-foot2-0r_0" index="0" speed="13.90" length="6.85" shape="192.02,6.57 191.73,6.58"/>
    </edge>
    <edge id="-foot2-1l" from="foot2-1lt" to="foot2-1" priority="-1" spreadType="center" shape="181.48,8.43 187.00,8.35">
        <lane id="-foot2-1l_0" index="0" speed="13.90" length="6.85" shape="181.98,8.43 182.25,8.42"/>
    </edge>
    <edge id="-foot2-1r" from="foot2-1rt" to="foot2-1" priority="-1" spreadType="center" shape="192.52,11.57 187.00,11.65">
        <lane id="-foot2-1r_0" index="0" speed="13.90" length="6.85" shape="192.02,11.57 191.73,11.58"/>
    </edge>
    <edge id="-foot2-1to0" from="foot2-0" to="foot2-1" priority="-1" spreadType="center" shape="188.65,5.00 188.57,10.52">
        <lane id="-foot2-1to0_0" index="0" speed="5.00" length="6.72" shape="188.65,5.23 188.64,5.43"/>
    </edge>
    <edge id="-foot2-2l" from="foot2-2lt" to="foot2-2" priority="-1" spreadType="center" shape="181.48,13.43 187.00,13.35">
        <lane id="-foot2-2l_0" index="0" speed="13.90" length="6.85" shape="181.98,13.43 182.25,13.42"/>
    </edge>
    <edge id="-foot2-2r" from="foot2-2rt" to="foot2-2" priority="-1" spreadType="center" shape="192.52,16.57 187.00,16.65">
        <lane id="-foot2-2r_0" index="0" speed="13.90" length="6.85" shape="192.02,16.57 191.73,16.58"/>
    </edge>
    <edge id="-foot2-2to1" from="foot2-1" to="foot2-2" priority="-1" spreadType="center" shape="188.65,10.00 188.57,15.52">
        <lane id="-foot2-2to1_0" index="0" speed="5.00" length="6.72" shape="188.65,10.23 188.64,10.43"/>
    </edge>
    <edge id="-foot2-3l" from="foot2-3lt" to="foot2-3" priority="-1" spreadType="center" shape="181.48,18.43 187.00,18.35">
        <lane id="-foot2-3l_0" index="0" speed="13.90" length="6.85" shape="181.98,18.43 182.25,18.42"/>
    </edge>
    <edge id="-foot2-3r" from="foot2-3rt" to="foot2-3" priority="-1" spreadType="center" shape="192.52,21.57 187.00,21.65">
        <lane id="-foot2-3r_0" index="0" speed="13.90" length="6.85" shape="192.02,21.57 191.73,21.58"/>
    </edge>
    <edge id="-foot2-3to2" from="foot2-2" to="foot2-3" priority="-1" spreadType="center" shape="188.65,15.00 188.57,20.52">
        <lane id="-foot2-3to2_0" index="0" speed="5.00" length="6.72" shape="188.65,15.23 188.64,15.43"/>
    </edge>
    <edge id="-foot2-4l" from="foot2-4lt" to="foot2-4" priority="-1" spreadType="center" shape="181.48,23.43 187.00,23.35">
        <lane id="-foot2-4l_0" index="0" speed="13.90" length="6.85" shape="181.98,23.43 182.25,23.42"/>
    </edge>
    <edge id="-foot2-4r" from="foot2-4rt" to="foot2-4" priority="-1" spreadType="center" shape="192.52,26.57 187.00,26.65">
        <lane id="-foot2-4r_0" index="0" speed="13.90" length="6.85" shape="192.02,26.57 191.73,26.58"/>
    </edge>
    <edge id="-foot2-4to3" from="foot2-3" to="foot2-4" priority="-1" spreadType="center" shape="188.65,20.00 188.57,25.52">
        <lane id="-foot2-4to3_0" index="0" speed="5.00" length="6.72" shape="188.65,20.23 188.64,20.43"/>
    </edge>
    <edge id="-foot2-5l" from="foot2-5lt" to="foot2-5" priority="-1" spreadType="center" shape="181.48,28.43 187.00,28.35">
        <lane id="-foot2-5l_0" index="0" speed="13.90" length="6.85" shape="181.98,28.43 182.25,28.42"/>
    </edge>
    <edge id="-foot2-5r" from="foot2-5rt" to="foot2-5" priority="-1" spreadType="center" shape="192.52,31.57 187.00,31.65">
        <lane id="-foot2-5r_0" index="0" speed="13.90" length="6.85" shape="192.02,31.57 191.73,31.58"/>
    </edge>
    <edge id="-foot2-5to4" from="foot2-4" to="foot2-5" priority="-1" spreadType="center" shape="188.65,25.00 188.57,30.52">
        <lane id="-foot2-5to4_0" index="0" speed="5.00" length="6.72" shape="188.65,25.23 188.64,25.43"/>
    </edge>
    <edge id="-foot2-6l" from="foot2-6lt" to="foot2-6" priority="-1" spreadType="center" shape="181.48,33.43 187.00,33.35">
        <lane id="-foot2-6l_0" index="0" speed="13.90" length="6.85" shape="181.98,33.43 182.25,33.42"/>
    </edge>
    <edge id="-foot2-6r" from="foot2-6rt" to="foot2-6" priority="-1" spreadType="center" shape="192.52,36.57 187.00,36.65">
        <lane id="-foot2-6r_0" index="0" speed="13.90" length="6.85" shape="192.02,36.57 191.73,36.58"/>
    </edge>
    <edge id="-foot2-6to5" from="foot2-5" to="foot2-6" priority="-1" spreadType="center" shape="188.65,30.00 188.57,35.52">
        <lane id="-foot2-6to5_0" index="0" speed="5.00" length="6.72" shape="188.65,30.23 188.64,30.43"/>
    </edge>
    <edge id="-foot2-7l" from="foot2-7lt" to="foot2-7" priority="-1" spreadType="center" shape="181.48,38.43 187.00,38.35">
        <lane id="-foot2-7l_0" index="0" speed="13.90" length="6.85" shape="181.98,38.43 182.25,38.42"/>
    </edge>
    <edge id="-foot2-7r" from="foot2-7rt" to="foot2-7" priority="-1" spreadType="center" shape="192.52,41.57 187.00,41.65">
        <lane id="-foot2-7r_0" index="0" speed="13.90" length="6.85" shape="192.02,41.57 191.73,41.58"/>
    </edge>
    <edge id="-foot2-7to6" from="foot2-6" to="foot2-7" priority="-1" spreadType="center" shape="188.65,35.00 188.57,40.52">
        <lane id="-foot2-7to6_0" index="0" speed="5.00" length="6.72" shape="188.65,35.23 188.64,35.43"/>
    </edge>
    <edge id="-foot2-8l" from="foot2-8lt" to="foot2-8" priority="-1" spreadType="center" shape="181.48,43.43 187.00,43.35">
        <lane id="-foot2-8l_0" index="0" speed="13.90" length="6.85" shape="181.98,43.43 182.25,43.42"/>
    </edge>
    <edge id="-foot2-8r" from="foot2-8rt" to="foot2-8" priority="-1" spreadType="center" shape="192.52,46.57 187.00,46.65">
        <lane id="-foot2-8r_0" index="0" speed="13.90" length="6.85" shape="192.02,46.57 191.73,46.58"/>
    </edge>
    <edge id="-foot2-8to7" from="foot2-7" to="foot2-8" priority="-1" spreadType="center" shape="188.65,40.00 188.57,45.52">
        <lane id="-foot2-8to7_0" index="0" speed="5.00" length="6.72" shape="188.65,40.23 188.64,40.43"/>
    </edge>
    <edge id="-foot2-9l" from="foot2-9lt" to="foot2-9" priority="-1" spreadType="center" shape="181.48,48.43 187.00,48.35">
        <lane id="-foot2-9l_0" index="0" speed="13.90" length="6.85" shape="181.98,48.43 182.25,48.42"/>
    </edge>
    <edge id="-foot2-9r" from="foot2-9rt" to="foot2-9" priority="-1" spreadType="center" shape="192.52,51.57 187.00,51.65">
        <lane id="-foot2-9r_0" index="0" speed="13.90" length="6.85" shape="192.02,51.57 191.75,51.58"/>
    </edge>
    <edge id="-foot2-9to8" from="foot2-8" to="foot2-9" priority="-1" spreadType="center" shape="188.65,45.00 188.57,50.52">
        <lane id="-foot2-9to8_0" index="0" speed="5.00" length="6.72" shape="188.65,45.23 188.64,45.43"/>
    </edge>
    <edge id="-foot2to9" from="foot2-9" to="foot2" priority="-1" spreadType="center" shape="188.57,49.48 188.65,55.00">
        <lane id="-foot2to9_0" index="0" speed="5.00" length="6.00" shape="188.60,51.88 188.61,52.08"/>
    </edge>
    <edge id="-foot3-0l" from="foot3-0lt" to="foot3-0" priority="-1" spreadType="center" shape="216.48,3.43 222.00,3.35">
        <lane id="-foot3-0l_0" index="0" speed="13.90" length="6.86" shape="216.98,3.43 217.37,3.42"/>
    </edge>
    <edge id="-foot3-0r" from="foot3-0rt" to="foot3-0" priority="-1" spreadType="center" shape="227.52,6.57 222.00,6.65">
        <lane id="-foot3-0r_0" index="0" speed="13.90" length="6.85" shape="227.02,6.57 226.73,6.58"/>
    </edge>
    <edge id="-foot3-1l" from="foot3-1lt" to="foot3-1" priority="-1" spreadType="center" shape="216.48,8.43 222.00,8.35">
        <lane id="-foot3-1l_0" index="0" speed="13.90" length="6.85" shape="216.98,8.43 217.25,8.42"/>
    </edge>
    <edge id="-foot3-1r" from="foot3-1rt" to="foot3-1" priority="-1" spreadType="center" shape="227.52,11.57 222.00,11.65">
        <lane id="-foot3-1r_0" index="0" speed="13.90" length="6.85" shape="227.02,11.57 226.73,11.58"/>
    </edge>
    <edge id="-foot3-1to0" from="foot3-0" to="foot3-1" priority="-1" spreadType="center" shape="223.65,5.00 223.57,10.52">
        <lane id="-foot3-1to0_0" index="0" speed="5.00" length="6.72" shape="223.65,5.23 223.64,5.43"/>
    </edge>
    <edge id="-foot3-2l" from="foot3-2lt" to="foot3-2" priority="-1" spreadType="center" shape="216.48,13.43 222.00,13.35">
        <lane id="-foot3-2l_0" index="0" speed="13.90" length="6.85" shape="216.98,13.43 217.25,13.42"/>
    </edge>
    <edge id="-foot3-2r" from="foot3-2rt" to="foot3-2" priority="-1" spreadType="center" shape="227.52,16.57 222.00,16.65">
        <lane id="-foot3-2r_0" index="0" speed="13.90" length="6.85" shape="227.02,16.57 226.73,16.58"/>
    </edge>
    <edge id="-foot3-2to1" from="foot3-1" to="foot3-2" priority="-1" spreadType="center" shape="223.65,10.00 223.57,15.52">
        <lane id="-foot3-2to1_0" index="0" speed="5.00" length="6.72" shape="223.65,10.23 223.64,10.43"/>
    </edge>
    <edge id="-foot3-3l" from="foot3-3lt" to="foot3-3" priority="-1" spreadType="center" shape="216.48,18.43 222.00,18.35">
        <lane id="-foot3-3l_0" index="0" speed="13.90" length="6.85" shape="216.98,18.43 217.25,18.42"/>
    </edge>
    <edge id="-foot3-3r" from="foot3-3rt" to="foot3-3" priority="-1" spreadType="center" shape="227.52,21.57 222.00,21.65">
        <lane id="-foot3-3r_0" index="0" speed="13.90" length="6.85" shape="227.02,21.57 226.73,21.58"/>
    </edge>
    <edge id="-foot3-3to2" from="foot3-2" to="foot3-3" priority="-1" spreadType="center" shape="223.65,15.00 223.57,20.52">
        <lane id="-foot3-3to2_0" index="0" speed="5.00" length="6.72" shape="223.65,15.23 223.64,15.43"/>
    </edge>
    <edge id="-foot3-4l" from="foot3-4lt" to="foot3-4" priority="-1" spreadType="center" shape="216.48,23.43 222.00,23.35">
        <lane id="-foot3-4l_0" index="0" speed="13.90" length="6.85" shape="216.98,23.43 217.25,23.42"/>
    </edge>
    <edge id="-foot3-4r" from="foot3-4rt" to="foot3-4" priority="-1" spreadType="center" shape="227.52,26.57 222.00,26.65">
        <lane id="-foot3-4r_0" index="0" speed="13.90" length="6.85" shape="227.02,26.57 226.73,26.58"/>
    </edge>
    <edge id="-foot3-4to3" from="foot3-3" to="foot3-4" priority="-1" spreadType="center" shape="223.65,20.00 223.57,25.52">
        <lane id="-foot3-4to3_0" index="0" speed="5.00" length="6.72" shape="223.65,20.23 223.64,20.43"/>
    </edge>
    <edge id="-foot3-5l" from="foot3-5lt" to="foot3-5" priority="-1" spreadType="center" shape="216.48,28.43 222.00,28.35">
        <lane id="-foot3-5l_0" index="0" speed="13.90" length="6.85" shape="216.98,28.43 217.25,28.42"/>
    </edge>
    <edge id="-foot3-5r" from="foot3-5rt" to="foot3-5" priority="-1" spreadType="center" shape="227.52,31.57 222.00,31.65">
        <lane id="-foot3-5r_0" index="0" speed="13.90" length="6.85" shape="227.02,31.57 226.73,31.58"/>
    </edge>